# Opt HF/6-31g* Pop=MK iop(6/33=2)

SEP and PPH for resp

-1 1
 6    -0.9792     -4.3508     -1.5291
 6     0.2208     -3.8008     -0.7481
 8     1.3018     -4.3918     -0.7681
 7     0.0458     -2.6738     -0.0591
 6     1.1468     -2.0808      0.7169
 6     1.7908     -3.1188      1.6259
 8     1.0758     -3.9388      2.2199
 6     0.6468     -0.9338      1.6079
 8     0.3158      0.2332      0.8519
 1    -0.8272     -2.2458     -0.0781
 7     3.1158     -3.0418      1.7549
 6     3.8508     -3.9698      2.5879
 1     3.5968     -2.3348      1.2809
 6    -0.1912      5.0732      0.8459
 6    -1.1312      3.9592      0.3769
 8    -2.3542      4.1482      0.3579
 7    -0.5572      2.8132     -0.0241
 6    -1.1212      1.9702     -0.3781
15    -1.2282      0.5812      0.7669
 8    -2.1672     -0.6228      0.4189
 8    -1.8782      1.0472      2.0399
 6    -0.8362      1.2822     -1.7461
 6    -0.9992      2.0692     -3.0401
 6    -2.0882      2.9392     -3.2201
 6    -0.0692      1.9502     -4.0651
 6    -2.2402      3.6792     -4.4141
 6    -0.2122      2.6932     -5.2721
 6    -1.2942      3.5512     -5.4391
 1     0.4248      2.7322      0.0029
 1    -1.0552     -5.3826     -1.1882
 1     1.8692     -1.6955      0.0022
 1    -0.2411     -1.2747      2.1400
 1     1.4264     -0.6980      2.3320
 1     4.7436     -3.4618      3.0061
 1     3.2240     -4.2605      3.4560
 1     0.7877      4.8718      0.4124
 1     0.0781      0.9679     -1.5476
 1    -2.7551      3.0317     -2.4984
 1     0.6936      1.3373     -3.9357
 1    -3.0089      4.2868     -4.5324
 1     0.4470      2.6124     -6.0022
 1    -1.3898      4.0642     -6.2768
 1    -1.4873      0.4283     -1.9848
 1    -2.1537      2.1801     -0.6942
 1     4.2020     -4.8275      2.2485
 1    -0.8064     -4.3973     -2.4552
 1    -1.8845     -3.9821     -1.6658
 1     0.0100      5.1072      1.8113
 1    -0.3728      6.0421      0.7984

