# Opt HF/6-31g* Pop=MK iop(6/33=2)
 
SIN
 
-1 1
C1   13.529  47.374  -0.405
O1   12.629  47.356  -1.278
O2   14.879  47.872  -0.578
C2   13.079  46.708   0.910
C3   14.191  45.931   1.666
C4   13.679  45.298   2.936
O3   13.739  45.940   3.995
H11  12.350  46.051   0.719
H12  12.740  47.407   1.539
H13  14.943  46.553   1.885
H14  14.531  45.189   1.089
N    12.810  44.301   2.755
H    13.554  43.738   2.367
C    12.041  43.758   3.871
H    12.147  44.395   4.749
H18  12.374  42.841   4.091
H19  11.075  43.710   3.618

